LAMMPS (16 Mar 2018)
#temperature in reduced units
variable temp equal 1.0

#Set the maximal force
variable maxforce equal 200

#set up basic simulation stuff
dimension 2
units		lj
atom_style	molecular
atom_modify     sort 1000 2.0
comm_modify     cutoff 2.0
boundary        p p p

#neighbor settings
neighbor 2.0 bin
neigh_modify every 1 delay 0 check yes

#read input configuration
read_data poly1.input
  orthogonal box = (-40 -40 -40) to (40 40 40)
  reading atoms ...
  40 atoms
  scanning bonds ...
  reading bonds ...
  39 bonds

#all particles has mass 1
mass   *        1

#Type 1 is internal bead, 2 is fixed, and 3 is free
group mobile type 1 3
39 atoms in group mobile
group fixed  type 2
1 atoms in group fixed
group force  type 3
1 atoms in group force

#no pair interactions
pair_style         none

#FENE type bond
bond_style fene
bond_coeff 1 50.0 1.5 0.0 0.0
special_bonds fene

# specify timestep
variable tstep equal 0.01
timestep	0.01
thermo    100

fix integrator mobile nve
fix dynamics   mobile langevin 1 1 10.0 252111
fix run2d      all enforce2d

variable eqrun      equal 50000
variable samplerun  equal 10000000

#first equilibrate
run 50000
Step Temp E_pair E_mol TotEng Press
0            0            0    29.299009    29.299009  -0.24204219
Averages over the last 251 of 501 rows, steps 25000 to 50000:
Temp E_pair E_mol TotEng Press
0.975411 0 0.94002 1.89105 -3.56621e-05
Loop time of 0.170697 on 1 procs for 50000 steps with 40 atoms

reset_timestep 0

#Add an external force to the end particle that grows linear with time
variable extforce equal 200*step/10000000
fix externforce force  addforce v_extforce 0 0

#sample average distance from one end to the other along the x axis
variable dist equal (x[40]-x[1])
fix avg all ave/time 1 500000 500000 v_dist v_extforce file dist_vs_force ave one

thermo 500000
thermo_style custom step f_avg[1] v_extforce

# Add by Jack
dump	1 all custom 10000 lammps.out id x y
run 10000000
Step f_avg[1] v_extforce
0            0            0
Averages over the last 11 of 21 rows, steps 5000000 to 10000000:
f_avg[1] v_extforce
44.4686 150
Loop time of 55.4491 on 1 procs for 10000000 steps with 40 atoms
